2
Lattice="1.0 0.0 0.0 0.0 1.0 0.0 0.0 0.0 1.0" Properties=species:S:1:pos:R:3:initial_magmoms:R:1:forces:R:3 energy=-10846.2645658431 free_energy=-10846.2645658431 pbc="F F F"
S        0.00000000       0.00000000       0.07908300       1.00000000      -0.00000000      -0.00000000       0.23145256
H        0.00000000       0.00000000      -1.26533000       0.00000000      -0.00000000      -0.00000000      -0.23145256
